** sch_path: /home/akashianse/msib/msib17okt24/opamp/magmag/nmos89/nmos89.sch
.subckt nmos89 GND D8 D9
*.PININFO GND:B D8:B D9:B
XM9 D9 D8 GND GND sky130_fd_pr__nfet_01v8 L=0.8 W=1 nf=1 m=4
XM8 D8 D8 GND GND sky130_fd_pr__nfet_01v8 L=0.8 W=1 nf=1 m=4
XM1 D9 D9 D9 GND sky130_fd_pr__nfet_01v8 L=0.15 W=1 nf=1 m=4
XM2 D8 D8 D8 GND sky130_fd_pr__nfet_01v8 L=0.15 W=1 nf=1 m=4
.ends
.end
